Circuit: * C:\Users\alfre\Desktop\HydrogelHeater\circuit_sims\Draft3.asc

Early termination of direct N-R iteration.
Direct Newton iteration failed to find .op point.  (Use ".option noopiter" to skip.)
Starting Gmin stepping
Increasing initial diagonal Gmin to 100
Increasing initial diagonal Gmin to 1000
Gmin = 1000
vernier = 0.5
vernier = 0.25
vernier = 0.125
vernier = 0.0625
Gmin = 836.601
vernier = 0.03125
vernier = 0.015625
vernier = 0.0078125
vernier = 0.00390625
Gmin = 822.125
vernier = 0.00195313
vernier = 0.000976563
vernier = 0.000488281
Gmin = 0
Gmin = 0
Gmin stepping failed

Starting source stepping with srcstepmethod=0
Source Step = 3.0303%
Source Step = 33.3333%
Source Step = 63.6364%
Source Step = 93.9394%
Source stepping succeeded in finding the operating point.

Heightened Def Con from 0.0953166 ++++++++++++++++++++++++++to 0.0953166
Heightened Def Con from 0.0953166 ++++++++++++++++++++to 0.0953166
Heightened Def Con from 0.0973234 ++++++++++++++++++++++++++++++++++++++++++++++++++to 0.0973234
Heightened Def Con from 0.0973234 ++++++++++++++++++++to 0.0973234

Date: Thu Jul 16 23:52:50 2020
Total elapsed time: 5.917 seconds.

tnom = 27
temp = 27
method = modified trap
totiter = 214590
traniter = 212661
tranpoints = 70806
accept = 57515
rejected = 13411
matrix size = 209
fillins = 581
solver = Normal
Thread vector: 11.5/6.5[3] 11.7/5.1[3] 9.5/4.2[3] 1.0/1.7[1]  2592/500
Matrix Compiler1: 45.06 KB object code size  17.3/10.0/[4.7]
Matrix Compiler2: 27.26 KB object code size  4.8/7.3/[2.3]

