Circuit: * C:\Users\alfre\Desktop\HydrogelHeater\circuit_sims\Draft2.asc

WARNING: Node NC_02 is floating.

WARNING: Less than two connections to node NC_01.  This node is used by L1.
WARNING: Less than two connections to node NC_02.  This node is used by L1.
Instance "m:u1:6": Length shorter than recommended for a level 2 MOSFET.
Instance "m:u1:5": Length shorter than recommended for a level 2 MOSFET.
Direct Newton iteration for .op point succeeded.

Date: Sat Jul 11 21:03:11 2020
Total elapsed time: 0.240 seconds.

tnom = 27
temp = 27
method = modified trap
totiter = 14359
traniter = 14328
tranpoints = 5529
accept = 4446
rejected = 1083
matrix size = 75
fillins = 43
solver = Normal
Matrix Compiler1: 6.78 KB object code size  0.9/0.5/[0.3]
Matrix Compiler2: 7.18 KB object code size  0.4/0.7/[0.3]

