Circuit: * C:\Users\alfre\Desktop\HydrogelHeater\circuit_sims\H_bridge_experimentation.asc

Instance "m:u4:6": Length shorter than recommended for a level 2 MOSFET.
Instance "m:u4:5": Length shorter than recommended for a level 2 MOSFET.
Direct Newton iteration failed to find .op point.  (Use ".option noopiter" to skip.)
Starting Gmin stepping
Gmin = 10
Gmin = 1.07374
Gmin = 0.115292
Gmin = 0.0123794
Gmin = 0.00132923
vernier = 0.5
vernier = 0.25
vernier = 0.125
vernier = 0.0625
Gmin = 0.00100083
vernier = 0.03125
vernier = 0.015625
vernier = 0.0078125
vernier = 0.00390625
vernier = 0.00195313
Gmin = 0.00100083
vernier = 0.000976563
vernier = 0.000488281
Gmin = 0
Gmin stepping succeeded in finding the operating point.


Date: Wed Jul 08 04:36:54 2020
Total elapsed time: 1.800 seconds.

tnom = 27
temp = 27
method = modified trap
totiter = 84666
traniter = 83118
tranpoints = 35741
accept = 30342
rejected = 5399
matrix size = 99
fillins = 58
solver = Normal
Thread vector: 10.3/7.4[2] 2.5/2.5[1] 3.0/2.7[2] 0.3/1.4[1]  2592/500
Matrix Compiler1: 7.84 KB object code size  1.1/0.6/[0.3]
Matrix Compiler2: 9.21 KB object code size  0.8/1.2/[0.4]

