Circuit: * C:\Users\alfre\Desktop\HydrogelHeater\lt_spice_sims\T_sense_circuits\NTC\Draft1.asc

Model "q_nmos_out": Oxide thickness thinner than recommended for a level 3 MOSFET.
Model "q_pmos_out": Oxide thickness thinner than recommended for a level 3 MOSFET.
u1:u1:control:clkf2:vclkf2: Removing PWL point (2.091,1)
u1:u1:control:clkf2:vclkf2: Removing PWL point (4.117,0)
Limiting rise time of source v:u1:u1:control:acm:acm to 1e+018
Limiting fall time of source v:u1:u1:control:acm:acm to 1e+018
u1:u1:control:clkf1:vclkf1: Removing PWL point (2.116,-1)
u1:u1:control:clkf1:vclkf1: Removing PWL point (4.092,0)
Instance "m:u1:u1:ina28x_diff_in_se_o:output2:t2:1": Length shorter than recommended for a level 1 MOSFET.
Instance "m:u1:u1:ina28x_diff_in_se_o:output2:t3:1": Length shorter than recommended for a level 1 MOSFET.
Instance "m:u1:u1:ina28x_diff_in_se_o:output2:t1:1": Length shorter than recommended for a level 1 MOSFET.
Instance "m:u1:u1:ina28x_diff_in_se_o:output2:t7:1": Length shorter than recommended for a level 1 MOSFET.
Instance "m:u1:u1:ina28x_diff_in_se_o:output2:t4:1": Length shorter than recommended for a level 1 MOSFET.
Instance "m:u1:u1:ina28x_diff_ioa:input1:t2:ni1": Length shorter than recommended for a level 1 MOSFET.
Instance "m:u1:u1:ina28x_diff_ioa:input1:t1:ni1": Length shorter than recommended for a level 1 MOSFET.
u1:u1:bias:vcq1_in: Missing value, assumed 0V @ DC
u1:u1:bias:visb3s_in: Missing value, assumed 0V @ DC
u1:u1:bias:vibvs1: Missing value, assumed 0V @ DC
u1:u1:control:vccvsb1_in: Missing value, assumed 0V @ DC
Direct Newton iteration failed to find .op point.  (Use ".option noopiter" to skip.)
Starting Gmin stepping
Gmin = 10
Gmin = 1.07374
Gmin = 0.115292
Gmin = 0.0123794
Gmin = 0.00132923
Gmin = 0.000142725
Gmin = 1.5325e-005
Gmin = 1.6455e-006
vernier = 0.5
Gmin = 2.7607e-007
vernier = 0.25
vernier = 0.125
vernier = 0.0625
vernier = 0.03125
Gmin = 2.63586e-007
vernier = 0.015625
vernier = 0.0078125
vernier = 0.00390625
Gmin = 2.61537e-007
vernier = 0.00195313
vernier = 0.000976563
vernier = 0.00130208
Gmin = 2.61303e-007
vernier = 0.00173611
Gmin = 2.60284e-007
vernier = 0.00231481
vernier = 0.00308642
Gmin = 2.58584e-007
vernier = 0.00411522
vernier = 0.00548696
Gmin = 2.55894e-007
vernier = 0.00731595
Gmin = 2.5172e-007
vernier = 0.00975459
vernier = 0.0130061
Gmin = 2.44868e-007
vernier = 0.0173415
vernier = 0.023122
Gmin = 2.34333e-007
vernier = 0.0308293
Gmin = 2.18682e-007
vernier = 0.0411057
vernier = 0.0548076
Gmin = 1.94774e-007
vernier = 0.0730768
vernier = 0.0974357
Gmin = 1.62043e-007
vernier = 0.129914
Gmin = 1.21489e-007
vernier = 0.173219
vernier = 0.230959
Gmin = 7.52582e-008
vernier = 0.307945
vernier = 0.410593
Gmin = 3.54537e-008
vernier = 0.547457
Gmin = 1.11087e-008
vernier = 0.729942
vernier = 0.973256
Gmin = 1.70045e-009
vernier = 1
Gmin = 1.84553e-010
Gmin = 1.98163e-011
Gmin = 2.12776e-012
Gmin = 2.28466e-013
Gmin = 0
Gmin stepping succeeded in finding the operating point.


Date: Mon Jun 15 23:24:36 2020
Total elapsed time: 0.485 seconds.

tnom = 27
temp = 27
method = trap
totiter = 2256
traniter = 0
tranpoints = 0
accept = 0
rejected = 0
matrix size = 234
fillins = 247
solver = Normal
Matrix Compiler1:    1148 opcodes
Matrix Compiler2: 24.53 KB object code size  3.2/4.2/[1.1]

