Circuit: * C:\Users\alfre\Desktop\HydrogelHeater\lt_spice_sims\T_sense_circuits\NTC\Draft5.asc

Fatal Error: This circuit does not have a conduction path to ground!
   Please flag a node as ground.
