Circuit: * C:\Users\alfre\Desktop\HydrogelHeater\lt_spice_sims\T_sense_circuits\NTC\Draft1.asc

Laplace(u1:u1:u6:e1): Window=72.334184µs Nfft=16384
Laplace(u1:u1:u5:e1): Window=72.334184µs Nfft=16384
Model "q_nmos_out": Oxide thickness thinner than recommended for a level 3 MOSFET.
Model "q_pmos_out": Oxide thickness thinner than recommended for a level 3 MOSFET.
u1:u1:control:clkf2:vclkf2: Removing PWL point (2.091,1)
u1:u1:control:clkf2:vclkf2: Removing PWL point (4.117,0)
Limiting rise time of source v:u1:u1:control:acm:acm to 1e+018
Limiting fall time of source v:u1:u1:control:acm:acm to 1e+018
u1:u1:control:clkf1:vclkf1: Removing PWL point (2.116,-1)
u1:u1:control:clkf1:vclkf1: Removing PWL point (4.092,0)
Instance "m:u1:u1:ina28x_diff_in_se_o:output2:t2:1": Length shorter than recommended for a level 1 MOSFET.
Instance "m:u1:u1:ina28x_diff_in_se_o:output2:t3:1": Length shorter than recommended for a level 1 MOSFET.
Instance "m:u1:u1:ina28x_diff_in_se_o:output2:t1:1": Length shorter than recommended for a level 1 MOSFET.
Instance "m:u1:u1:ina28x_diff_in_se_o:output2:t7:1": Length shorter than recommended for a level 1 MOSFET.
Instance "m:u1:u1:ina28x_diff_in_se_o:output2:t4:1": Length shorter than recommended for a level 1 MOSFET.
Instance "m:u1:u1:ina28x_diff_ioa:input1:t2:ni1": Length shorter than recommended for a level 1 MOSFET.
Instance "m:u1:u1:ina28x_diff_ioa:input1:t1:ni1": Length shorter than recommended for a level 1 MOSFET.
u1:u1:bias:vcq1_in: Missing value, assumed 0V @ DC
u1:u1:bias:visb3s_in: Missing value, assumed 0V @ DC
u1:u1:bias:vibvs1: Missing value, assumed 0V @ DC
u1:u1:control:vccvsb1_in: Missing value, assumed 0V @ DC
Direct Newton iteration failed to find .op point.  (Use ".option noopiter" to skip.)
Starting Gmin stepping
Gmin = 10
Gmin = 1.07374
Gmin = 0.115292
Gmin = 0.0123794
Gmin = 0.00132923
Gmin = 0.000142725
Gmin = 1.5325e-005
Gmin = 1.6455e-006
vernier = 0.5
Gmin = 2.7607e-007
vernier = 0.25
vernier = 0.125
vernier = 0.0625
vernier = 0.03125
Gmin = 2.63586e-007
vernier = 0.015625
vernier = 0.0078125
vernier = 0.00390625
Gmin = 2.61537e-007
vernier = 0.00195313
vernier = 0.000976563
vernier = 0.000488281
vernier = 0.000651042
Gmin = 2.6159e-007
vernier = 0.000868055
Gmin = 2.61094e-007
vernier = 0.00115741
vernier = 0.00154321
Gmin = 2.60283e-007
vernier = 0.00205761
vernier = 0.00274348
Gmin = 2.59004e-007
vernier = 0.00365797
Gmin = 2.5694e-007
vernier = 0.0048773
vernier = 0.00650306
Gmin = 2.53597e-007
vernier = 0.00867074
vernier = 0.011561
Gmin = 2.48388e-007
vernier = 0.0154146
Gmin = 2.40166e-007
vernier = 0.0205529
vernier = 0.0274038
Gmin = 2.27296e-007
vernier = 0.0365384
vernier = 0.0487178
Gmin = 2.08326e-007
vernier = 0.0649571
Gmin = 1.80916e-007
vernier = 0.0866095
vernier = 0.115479
Gmin = 1.43741e-007
vernier = 0.153972
vernier = 0.205296
Gmin = 1.00078e-007
vernier = 0.273728
Gmin = 5.59658e-008
vernier = 0.364971
vernier = 0.486628
Gmin = 2.1982e-008
vernier = 0.648837
vernier = 0.865116
Gmin = 5.19694e-009
vernier = 1
Gmin = 6.39782e-010
Gmin = 6.8696e-011
Gmin = 7.37618e-012
Gmin = 7.92011e-013
Gmin = 0
Gmin = 0
Gmin stepping succeeded in finding the operating point.


Date: Wed Jun 17 15:18:51 2020
Total elapsed time: 16.031 seconds.

tnom = 27
temp = 27
method = modified trap
totiter = 455617
traniter = 453174
tranpoints = 226551
accept = 226542
rejected = 9
matrix size = 234
fillins = 253
solver = Normal
Thread vector: 15.3/10.2[4] 13.4/4.7[4] 5.7/4.6[4] 0.8/1.5[1]  2592/500
Matrix Compiler1: 20.33 KB object code size  12.0/5.7/[2.3]
Matrix Compiler2: 24.65 KB object code size  3.8/4.4/[1.0]

