Circuit: * C:\Users\alfre\Desktop\HydrogelHeater\lt_spice_sims\T_sense_circuits\NTC\test_ntc.asc

Direct Newton iteration for .op point succeeded.

Date: Mon Jun 08 21:38:40 2020
Total elapsed time: 1.990 seconds.

tnom = 27
temp = 27
method = trap
totiter = 3
traniter = 0
tranpoints = 0
accept = 0
rejected = 0
matrix size = 3
fillins = 0
solver = Normal
Matrix Compiler1: 50 bytes object code size
Matrix Compiler2: 175 bytes object code size
